 1000.00     305.00      14.00
   25.00     300.00      10.00   4.1681581e-001  5.0277844e+000
   75.00     300.00      10.00   5.8655442e-001  4.9906822e+000
  125.00     300.00      10.00   3.6234860e-001  4.2014713e+000
  175.00     300.00      10.00  -5.1085579e-001  3.2809505e+000
  225.00     300.00      10.00  -1.5806213e+000  3.4031929e+000
  275.00     300.00      10.00  -2.3317812e+000  3.6808897e+000
  325.00     300.00      10.00  -2.0247659e+000  3.8306447e+000
  375.00     300.00      10.00  -1.1992029e+000  3.6743075e+000
  425.00     300.00      10.00  -5.3907120e-004  3.7086023e+000
  475.00     300.00      10.00   6.0365878e-001  3.8332750e+000
  525.00     300.00      10.00   9.5982991e-001  3.6798402e+000
  575.00     300.00      10.00   9.0748152e-001  3.1655270e+000
  625.00     300.00      10.00   8.6561634e-001  2.6993272e+000
  675.00     300.00      10.00   8.3817153e-001  2.5071735e+000
  725.00     300.00      10.00   8.1889911e-001  2.4966228e+000
  775.00     300.00      10.00   8.7271872e-001  2.4776771e+000
  825.00     300.00      10.00   9.0982141e-001  2.4482306e+000
  875.00     300.00      10.00   7.7972340e-001  2.4054955e+000
  925.00     300.00      10.00   6.6661281e-001  2.3946115e+000
  975.00     302.43      10.00   7.8492408e-001  2.4384234e+000
 1025.00     305.63       4.00   9.2793665e-001  2.4764178e+000
